PF3 Phosphorus trifluoride 7783553
##CCCBDB 5172217:13
Geometry Optimized at CCSD(T)/6-31G*
  4  3  0  0  0  0  0  0  0  0999 V2000
    0.0000    0.0000    0.4923 N   0  0  0  0  0  0  0  0  0  0  0  0
    0.0000    1.2439   -0.1276 F   0  0  0  0  0  0  0  0  0  0  0  0
    1.0772   -0.6219   -0.1276 F   0  0  0  0  0  0  0  0  0  0  0  0
   -1.0772   -0.6219   -0.1276 F   0  0  0  0  0  0  0  0  0  0  0  0
  1  2  1  0  0  0
  1  3  1  0  0  0
  1  4  1  0  0  0
M  END
